SIM
 OpenBabel12212412533D

 68 70  0  0  1  0  0  0  0  0999 V2000
    0.9843   -0.2539   -0.0550 H   0  0  0  0  0  0  0  0  0  0  0  0
    2.0832   -0.0882   -0.0308 C   0  0  1  0  0  0  0  0  0  0  0  0
    2.3144    1.4324    0.2097 C   0  0  2  0  0  0  0  0  0  0  0  0
    1.7879    2.2072   -1.0039 C   0  0  0  0  0  0  0  0  0  0  0  0
    2.5124    1.8370   -2.3153 C   0  0  1  0  0  0  0  0  0  0  0  0
    3.8221    2.6081   -2.5071 C   0  0  0  0  0  0  0  0  0  0  0  0
    2.7943    0.3530   -2.4145 C   0  0  0  0  0  0  0  0  0  0  0  0
    2.6164   -0.5208   -1.3972 C   0  0  0  0  0  0  0  0  0  0  0  0
    2.9116   -1.9546   -1.6361 C   0  0  0  0  0  0  0  0  0  0  0  0
    2.7954   -2.8686   -0.6645 C   0  0  0  0  0  0  0  0  0  0  0  0
    2.4001   -2.5173    0.7513 C   0  0  2  0  0  0  0  0  0  0  0  0
    0.9474   -2.9703    0.9738 C   0  0  0  0  0  0  0  0  0  0  0  0
    2.6804   -1.0095    1.0767 C   0  0  2  0  0  0  0  0  0  0  0  0
    2.2267   -0.6028    2.5087 C   0  0  0  0  0  0  0  0  0  0  0  0
    2.8881   -1.4372    3.6237 C   0  0  0  0  0  0  0  0  0  0  0  0
    2.4798   -0.9961    5.0434 C   0  0  2  0  0  0  0  0  0  0  0  0
    2.9077    0.4662    5.3455 C   0  0  0  0  0  0  0  0  0  0  0  0
    2.7433    0.7519    6.8372 C   0  0  1  0  0  0  0  0  0  0  0  0
    1.3976    0.5864    7.2268 O   0  0  0  0  0  0  0  0  0  0  0  0
    3.7015   -0.1569    7.6310 C   0  0  0  0  0  0  0  0  0  0  0  0
    3.6756   -1.5721    7.1088 C   0  0  0  0  0  0  0  0  0  0  0  0
    4.2942   -2.4391    7.7042 O   0  0  0  0  0  0  0  0  0  0  0  0
    3.0218   -1.8940    5.9592 O   0  0  0  0  0  0  0  0  0  0  0  0
    3.6598    1.7010    0.4348 O   0  0  0  0  0  0  0  0  0  0  0  0
    4.1542    2.3474    1.5297 C   0  0  0  0  0  0  0  0  0  0  0  0
    3.3936    2.9137    2.3052 O   0  0  0  0  0  0  0  0  0  0  0  0
    5.6572    2.3549    1.7948 C   0  0  0  0  0  0  0  0  0  0  0  0
    5.9835    3.1062    3.1097 C   0  0  0  0  0  0  0  0  0  0  0  0
    6.1286    0.8960    1.9526 C   0  0  0  0  0  0  0  0  0  0  0  0
    6.4234    2.9954    0.6029 C   0  0  0  0  0  0  0  0  0  0  0  0
    6.0033    4.4316    0.2695 C   0  0  0  0  0  0  0  0  0  0  0  0
    1.6974    1.7459    1.0798 H   0  0  0  0  0  0  0  0  0  0  0  0
    1.8114    3.3066   -0.8402 H   0  0  0  0  0  0  0  0  0  0  0  0
    0.7171    1.9216   -1.1132 H   0  0  0  0  0  0  0  0  0  0  0  0
    1.8401    2.1438   -3.1465 H   0  0  0  0  0  0  0  0  0  0  0  0
    4.5657    2.3372   -1.7403 H   0  0  0  0  0  0  0  0  0  0  0  0
    3.6355    3.7021   -2.4615 H   0  0  0  0  0  0  0  0  0  0  0  0
    4.2582    2.3744   -3.5021 H   0  0  0  0  0  0  0  0  0  0  0  0
    3.1841   -0.0085   -3.3631 H   0  0  0  0  0  0  0  0  0  0  0  0
    3.2051   -2.2872   -2.6283 H   0  0  0  0  0  0  0  0  0  0  0  0
    2.9639   -3.9134   -0.9101 H   0  0  0  0  0  0  0  0  0  0  0  0
    3.0535   -3.1159    1.4201 H   0  0  0  0  0  0  0  0  0  0  0  0
    0.2497   -2.4184    0.3105 H   0  0  0  0  0  0  0  0  0  0  0  0
    0.6361   -2.8228    2.0270 H   0  0  0  0  0  0  0  0  0  0  0  0
    0.8518   -4.0555    0.7539 H   0  0  0  0  0  0  0  0  0  0  0  0
    3.7842   -0.8734    1.0347 H   0  0  0  0  0  0  0  0  0  0  0  0
    1.1214   -0.6617    2.5966 H   0  0  0  0  0  0  0  0  0  0  0  0
    2.5224    0.4446    2.6731 H   0  0  0  0  0  0  0  0  0  0  0  0
    3.9942   -1.3797    3.5283 H   0  0  0  0  0  0  0  0  0  0  0  0
    2.5845   -2.4984    3.5134 H   0  0  0  0  0  0  0  0  0  0  0  0
    1.3738   -1.0790    5.1251 H   0  0  0  0  0  0  0  0  0  0  0  0
    2.2996    1.1833    4.7554 H   0  0  0  0  0  0  0  0  0  0  0  0
    3.9795    0.6123    5.0829 H   0  0  0  0  0  0  0  0  0  0  0  0
    3.0187    1.8046    7.0637 H   0  0  0  0  0  0  0  0  0  0  0  0
    1.2303   -0.3719    7.4220 H   0  0  0  0  0  0  0  0  0  0  0  0
    3.4278   -0.1131    8.7073 H   0  0  0  0  0  0  0  0  0  0  0  0
    4.7476    0.2033    7.5213 H   0  0  0  0  0  0  0  0  0  0  0  0
    5.4818    2.6165    3.9728 H   0  0  0  0  0  0  0  0  0  0  0  0
    5.6363    4.1591    3.0765 H   0  0  0  0  0  0  0  0  0  0  0  0
    7.0783    3.1039    3.3014 H   0  0  0  0  0  0  0  0  0  0  0  0
    5.5981    0.4026    2.7954 H   0  0  0  0  0  0  0  0  0  0  0  0
    7.2206    0.8546    2.1561 H   0  0  0  0  0  0  0  0  0  0  0  0
    5.9305    0.3136    1.0271 H   0  0  0  0  0  0  0  0  0  0  0  0
    6.2695    2.3765   -0.3041 H   0  0  0  0  0  0  0  0  0  0  0  0
    7.5151    2.9897    0.8166 H   0  0  0  0  0  0  0  0  0  0  0  0
    4.9251    4.4760    0.0086 H   0  0  0  0  0  0  0  0  0  0  0  0
    6.5866    4.7889   -0.6050 H   0  0  0  0  0  0  0  0  0  0  0  0
    6.2062    5.1182    1.1154 H   0  0  0  0  0  0  0  0  0  0  0  0
  2  1  1  6  0  0  0
  2  3  1  0  0  0  0
  2  8  1  0  0  0  0
  2 13  1  0  0  0  0
  3  4  1  0  0  0  0
  3 24  1  0  0  0  0
  3 32  1  1  0  0  0
  4  5  1  0  0  0  0
  4 33  1  0  0  0  0
  4 34  1  0  0  0  0
  5  6  1  0  0  0  0
  5  7  1  0  0  0  0
  5 35  1  6  0  0  0
  6 36  1  0  0  0  0
  6 37  1  0  0  0  0
  6 38  1  0  0  0  0
  7  8  2  0  0  0  0
  7 39  1  0  0  0  0
  8  9  1  0  0  0  0
  9 10  2  0  0  0  0
  9 40  1  0  0  0  0
 10 11  1  0  0  0  0
 10 41  1  0  0  0  0
 11 12  1  0  0  0  0
 11 13  1  0  0  0  0
 11 42  1  1  0  0  0
 12 43  1  0  0  0  0
 12 44  1  0  0  0  0
 12 45  1  0  0  0  0
 13 14  1  0  0  0  0
 13 46  1  6  0  0  0
 14 15  1  0  0  0  0
 14 47  1  0  0  0  0
 14 48  1  0  0  0  0
 15 16  1  0  0  0  0
 15 49  1  0  0  0  0
 15 50  1  0  0  0  0
 16 17  1  0  0  0  0
 16 23  1  0  0  0  0
 16 51  1  1  0  0  0
 17 18  1  0  0  0  0
 17 52  1  0  0  0  0
 17 53  1  0  0  0  0
 18 19  1  0  0  0  0
 18 20  1  0  0  0  0
 18 54  1  1  0  0  0
 19 55  1  0  0  0  0
 20 21  1  0  0  0  0
 20 56  1  0  0  0  0
 20 57  1  0  0  0  0
 21 22  2  0  0  0  0
 21 23  1  0  0  0  0
 24 25  1  0  0  0  0
 25 26  2  0  0  0  0
 25 27  1  0  0  0  0
 27 28  1  0  0  0  0
 27 29  1  0  0  0  0
 27 30  1  0  0  0  0
 28 58  1  0  0  0  0
 28 59  1  0  0  0  0
 28 60  1  0  0  0  0
 29 61  1  0  0  0  0
 29 62  1  0  0  0  0
 29 63  1  0  0  0  0
 30 31  1  0  0  0  0
 30 64  1  0  0  0  0
 30 65  1  0  0  0  0
 31 66  1  0  0  0  0
 31 67  1  0  0  0  0
 31 68  1  0  0  0  0
M  END
>  <Energy>
353.792

$$$$
