REMARK SMILES CCC(C)(C)C(=O)O[C@H]1C[C@@H](C)C=C2C=C[C@H](C)[C@H](CC[C@@H]3C[C@@H](O)CC(=O)O3)[C@H]21
REMARK SMILES IDX 30 1 9 2 10 3 11 4 12 5 13 6 14 7 15 8 16 9 17 10 18 11
REMARK SMILES IDX 19 12 8 13 6 14 7 15 3 16 4 17 5 18 2 19 1 20 20 21 21 22
REMARK SMILES IDX 22 23 23 24 29 25 24 26 27 27 26 28 28 29 25 30
REMARK H PARENT 25 31
REMARK Flexibility Score: inf
ROOT
ATOM      1  C   UNL A   1       2.083  -0.088  -0.031  1.00  0.00     0.063 C 
ATOM      2  C   UNL A   1       2.314   1.432   0.210  1.00  0.00     0.185 C 
ATOM      3  C   UNL A   1       1.788   2.207  -1.004  1.00  0.00     0.053 C 
ATOM      4  C   UNL A   1       2.512   1.837  -2.315  1.00  0.00     0.012 C 
ATOM      5  C   UNL A   1       3.822   2.608  -2.507  1.00  0.00     0.012 C 
ATOM      6  C   UNL A   1       2.794   0.353  -2.414  1.00  0.00    -0.020 C 
ATOM      7  C   UNL A   1       2.616  -0.521  -1.397  1.00  0.00    -0.045 C 
ATOM      8  C   UNL A   1       2.912  -1.955  -1.636  1.00  0.00    -0.000 C 
ATOM      9  C   UNL A   1       2.795  -2.869  -0.664  1.00  0.00    -0.023 C 
ATOM     10  C   UNL A   1       2.400  -2.517   0.751  1.00  0.00     0.012 C 
ATOM     11  C   UNL A   1       0.947  -2.970   0.974  1.00  0.00     0.012 C 
ATOM     12  C   UNL A   1       2.680  -1.010   1.077  1.00  0.00     0.007 C 
ENDROOT
BRANCH   2  13
ATOM     13  O   UNL A   1       3.660   1.701   0.435  1.00  0.00    -0.461 OA
BRANCH  13  14
ATOM     14  C   UNL A   1       4.154   2.347   1.530  1.00  0.00     0.311 C 
ATOM     15  O   UNL A   1       3.394   2.914   2.305  1.00  0.00    -0.252 OA
BRANCH  14  16
ATOM     16  C   UNL A   1       5.657   2.355   1.795  1.00  0.00     0.062 C 
ATOM     17  C   UNL A   1       5.984   3.106   3.110  1.00  0.00     0.023 C 
ATOM     18  C   UNL A   1       6.129   0.896   1.953  1.00  0.00     0.023 C 
BRANCH  16  19
ATOM     19  C   UNL A   1       6.423   2.995   0.603  1.00  0.00     0.015 C 
ATOM     20  C   UNL A   1       6.003   4.432   0.270  1.00  0.00     0.005 C 
ENDBRANCH  16  19
ENDBRANCH  14  16
ENDBRANCH  13  14
ENDBRANCH   2  13
BRANCH  12  21
ATOM     21  C   UNL A   1       2.227  -0.603   2.509  1.00  0.00     0.009 C 
BRANCH  21  22
ATOM     22  C   UNL A   1       2.888  -1.437   3.624  1.00  0.00     0.046 C 
BRANCH  22  23
ATOM     23  C   UNL A   1       2.480  -0.996   5.043  1.00  0.00     0.179 C 
ATOM     24  C   UNL A   1       2.908   0.466   5.346  1.00  0.00     0.077 C 
ATOM     25  O   UNL A   1       3.022  -1.894   5.959  1.00  0.00    -0.462 OA
ATOM     26  C   UNL A   1       2.743   0.752   6.837  1.00  0.00     0.129 C 
ATOM     27  C   UNL A   1       3.676  -1.572   7.109  1.00  0.00     0.308 C 
ATOM     28  C   UNL A   1       3.701  -0.157   7.631  1.00  0.00     0.154 C 
ATOM     29  O   UNL A   1       4.294  -2.439   7.704  1.00  0.00    -0.252 OA
BRANCH  26  30
ATOM     30  O   UNL A   1       1.398   0.586   7.227  1.00  0.00    -0.392 OA
ATOM     31  H   UNL A   1       1.230  -0.372   7.422  1.00  0.00     0.210 HD
ENDBRANCH  26  30
ENDBRANCH  22  23
ENDBRANCH  21  22
ENDBRANCH  12  21
TORSDOF 8
