MODEL 1
REMARK VINA RESULT:    -6.417      0.000      0.000
REMARK INTER + INTRA:         -11.510
REMARK INTER:                  -9.230
REMARK INTRA:                  -2.280
REMARK UNBOUND:                -2.280
REMARK SMILES CCC(C)(C)C(=O)O[C@H]1C[C@@H](C)C=C2C=C[C@H](C)[C@H](CC[C@@H]3C[C@@H](O)CC(=O)O3)[C@H]21
REMARK SMILES IDX 30 1 9 2 10 3 11 4 12 5 13 6 14 7 15 8 16 9 17 10 18 11
REMARK SMILES IDX 19 12 8 13 6 14 7 15 3 16 4 17 5 18 2 19 1 20 20 21 21 22
REMARK SMILES IDX 22 23 23 24 29 25 24 26 27 27 26 28 28 29 25 30
REMARK H PARENT 25 31
REMARK Flexibility Score: inf
ROOT
ATOM      1  C   UNL A   1     -37.324  12.582  27.301  1.00  0.00     0.063 C 
ATOM      2  C   UNL A   1     -37.220  11.790  25.966  1.00  0.00     0.185 C 
ATOM      3  C   UNL A   1     -38.486  12.050  25.141  1.00  0.00     0.053 C 
ATOM      4  C   UNL A   1     -39.774  11.582  25.850  1.00  0.00     0.012 C 
ATOM      5  C   UNL A   1     -40.056  10.091  25.643  1.00  0.00     0.012 C 
ATOM      6  C   UNL A   1     -39.750  11.878  27.334  1.00  0.00    -0.020 C 
ATOM      7  C   UNL A   1     -38.658  12.317  28.001  1.00  0.00    -0.045 C 
ATOM      8  C   UNL A   1     -38.778  12.589  29.455  1.00  0.00    -0.000 C 
ATOM      9  C   UNL A   1     -37.728  12.989  30.185  1.00  0.00    -0.023 C 
ATOM     10  C   UNL A   1     -36.342  13.153  29.608  1.00  0.00     0.012 C 
ATOM     11  C   UNL A   1     -36.053  14.657  29.465  1.00  0.00     0.012 C 
ATOM     12  C   UNL A   1     -36.152  12.317  28.296  1.00  0.00     0.007 C 
ENDROOT
BRANCH   2  13
ATOM     13  O   UNL A   1     -37.045  10.431  26.205  1.00  0.00    -0.461 OA
BRANCH  13  14
ATOM     14  C   UNL A   1     -36.051   9.667  25.669  1.00  0.00     0.311 C 
ATOM     15  O   UNL A   1     -35.397  10.083  24.721  1.00  0.00    -0.252 OA
BRANCH  14  16
ATOM     16  C   UNL A   1     -35.746   8.292  26.259  1.00  0.00     0.062 C 
ATOM     17  C   UNL A   1     -36.002   8.276  27.787  1.00  0.00     0.023 C 
ATOM     18  C   UNL A   1     -36.693   7.265  25.609  1.00  0.00     0.023 C 
BRANCH  16  19
ATOM     19  C   UNL A   1     -34.280   7.875  25.953  1.00  0.00     0.015 C 
ATOM     20  C   UNL A   1     -33.375   7.764  27.187  1.00  0.00     0.005 C 
ENDBRANCH  16  19
ENDBRANCH  14  16
ENDBRANCH  13  14
ENDBRANCH   2  13
BRANCH  12  21
ATOM     21  C   UNL A   1     -34.753  12.513  27.646  1.00  0.00     0.009 C 
BRANCH  21  22
ATOM     22  C   UNL A   1     -33.777  11.353  27.923  1.00  0.00     0.046 C 
BRANCH  22  23
ATOM     23  C   UNL A   1     -32.380  11.567  27.308  1.00  0.00     0.179 C 
ATOM     24  C   UNL A   1     -32.345  11.209  25.797  1.00  0.00     0.077 C 
ATOM     25  O   UNL A   1     -31.456  10.823  28.037  1.00  0.00    -0.462 OA
ATOM     26  C   UNL A   1     -30.898  11.161  25.313  1.00  0.00     0.129 C 
ATOM     27  C   UNL A   1     -30.481  10.024  27.522  1.00  0.00     0.308 C 
ATOM     28  C   UNL A   1     -30.160  10.025  26.048  1.00  0.00     0.154 C 
ATOM     29  O   UNL A   1     -29.888   9.258  28.262  1.00  0.00    -0.252 OA
BRANCH  26  30
ATOM     30  O   UNL A   1     -30.274  12.412  25.493  1.00  0.00    -0.392 OA
ATOM     31  H   UNL A   1     -30.379  12.697  26.438  1.00  0.00     0.210 HD
ENDBRANCH  26  30
ENDBRANCH  22  23
ENDBRANCH  21  22
ENDBRANCH  12  21
TORSDOF 8
ENDMDL
MODEL 2
REMARK VINA RESULT:    -6.380      1.844      4.888
REMARK INTER + INTRA:         -11.457
REMARK INTER:                  -9.512
REMARK INTRA:                  -1.945
REMARK UNBOUND:                -2.280
REMARK SMILES CCC(C)(C)C(=O)O[C@H]1C[C@@H](C)C=C2C=C[C@H](C)[C@H](CC[C@@H]3C[C@@H](O)CC(=O)O3)[C@H]21
REMARK SMILES IDX 30 1 9 2 10 3 11 4 12 5 13 6 14 7 15 8 16 9 17 10 18 11
REMARK SMILES IDX 19 12 8 13 6 14 7 15 3 16 4 17 5 18 2 19 1 20 20 21 21 22
REMARK SMILES IDX 22 23 23 24 29 25 24 26 27 27 26 28 28 29 25 30
REMARK H PARENT 25 31
REMARK Flexibility Score: inf
ROOT
ATOM      1  C   UNL A   1     -36.880   9.151  25.247  1.00  0.00     0.063 C 
ATOM      2  C   UNL A   1     -37.112  10.243  26.331  1.00  0.00     0.185 C 
ATOM      3  C   UNL A   1     -38.560  10.736  26.229  1.00  0.00     0.053 C 
ATOM      4  C   UNL A   1     -38.885  11.374  24.862  1.00  0.00     0.012 C 
ATOM      5  C   UNL A   1     -38.475  12.848  24.782  1.00  0.00     0.012 C 
ATOM      6  C   UNL A   1     -38.246  10.621  23.714  1.00  0.00    -0.020 C 
ATOM      7  C   UNL A   1     -37.339   9.630  23.870  1.00  0.00    -0.045 C 
ATOM      8  C   UNL A   1     -36.807   8.961  22.657  1.00  0.00    -0.000 C 
ATOM      9  C   UNL A   1     -35.879   7.998  22.735  1.00  0.00    -0.023 C 
ATOM     10  C   UNL A   1     -35.270   7.548  24.043  1.00  0.00     0.012 C 
ATOM     11  C   UNL A   1     -35.862   6.175  24.404  1.00  0.00     0.012 C 
ATOM     12  C   UNL A   1     -35.408   8.641  25.157  1.00  0.00     0.007 C 
ENDROOT
BRANCH   2  13
ATOM     13  O   UNL A   1     -36.211  11.292  26.182  1.00  0.00    -0.461 OA
BRANCH  13  14
ATOM     14  C   UNL A   1     -35.652  11.993  27.210  1.00  0.00     0.311 C 
ATOM     15  O   UNL A   1     -35.591  11.499  28.329  1.00  0.00    -0.252 OA
BRANCH  14  16
ATOM     16  C   UNL A   1     -35.094  13.392  26.963  1.00  0.00     0.062 C 
ATOM     17  C   UNL A   1     -34.491  13.504  25.540  1.00  0.00     0.023 C 
ATOM     18  C   UNL A   1     -36.254  14.402  27.067  1.00  0.00     0.023 C 
BRANCH  16  19
ATOM     19  C   UNL A   1     -34.026  13.755  28.033  1.00  0.00     0.015 C 
ATOM     20  C   UNL A   1     -34.474  14.810  29.052  1.00  0.00     0.005 C 
ENDBRANCH  16  19
ENDBRANCH  14  16
ENDBRANCH  13  14
ENDBRANCH   2  13
BRANCH  12  21
ATOM     21  C   UNL A   1     -34.844   8.182  26.533  1.00  0.00     0.009 C 
BRANCH  21  22
ATOM     22  C   UNL A   1     -33.359   7.770  26.483  1.00  0.00     0.046 C 
BRANCH  22  23
ATOM     23  C   UNL A   1     -32.410   8.827  27.079  1.00  0.00     0.179 C 
ATOM     24  C   UNL A   1     -32.727  10.257  26.560  1.00  0.00     0.077 C 
ATOM     25  O   UNL A   1     -31.098   8.454  26.797  1.00  0.00    -0.462 OA
ATOM     26  C   UNL A   1     -31.596  11.207  26.947  1.00  0.00     0.129 C 
ATOM     27  C   UNL A   1     -30.117   9.268  26.319  1.00  0.00     0.308 C 
ATOM     28  C   UNL A   1     -30.303  10.762  26.237  1.00  0.00     0.154 C 
ATOM     29  O   UNL A   1     -29.083   8.771  25.905  1.00  0.00    -0.252 OA
BRANCH  26  30
ATOM     30  O   UNL A   1     -31.450  11.259  28.348  1.00  0.00    -0.392 OA
ATOM     31  H   UNL A   1     -32.326  11.474  28.761  1.00  0.00     0.210 HD
ENDBRANCH  26  30
ENDBRANCH  22  23
ENDBRANCH  21  22
ENDBRANCH  12  21
TORSDOF 8
ENDMDL
MODEL 3
REMARK VINA RESULT:    -6.251      1.723      2.560
REMARK INTER + INTRA:         -11.271
REMARK INTER:                  -9.769
REMARK INTRA:                  -1.502
REMARK UNBOUND:                -2.280
REMARK SMILES CCC(C)(C)C(=O)O[C@H]1C[C@@H](C)C=C2C=C[C@H](C)[C@H](CC[C@@H]3C[C@@H](O)CC(=O)O3)[C@H]21
REMARK SMILES IDX 30 1 9 2 10 3 11 4 12 5 13 6 14 7 15 8 16 9 17 10 18 11
REMARK SMILES IDX 19 12 8 13 6 14 7 15 3 16 4 17 5 18 2 19 1 20 20 21 21 22
REMARK SMILES IDX 22 23 23 24 29 25 24 26 27 27 26 28 28 29 25 30
REMARK H PARENT 25 31
REMARK Flexibility Score: inf
ROOT
ATOM      1  C   UNL A   1     -37.004  13.451  28.359  1.00  0.00     0.063 C 
ATOM      2  C   UNL A   1     -37.901  12.242  27.965  1.00  0.00     0.185 C 
ATOM      3  C   UNL A   1     -39.354  12.722  27.863  1.00  0.00     0.053 C 
ATOM      4  C   UNL A   1     -39.899  13.281  29.194  1.00  0.00     0.012 C 
ATOM      5  C   UNL A   1     -40.424  12.184  30.126  1.00  0.00     0.012 C 
ATOM      6  C   UNL A   1     -38.867  14.105  29.933  1.00  0.00    -0.020 C 
ATOM      7  C   UNL A   1     -37.565  14.185  29.578  1.00  0.00    -0.045 C 
ATOM      8  C   UNL A   1     -36.663  15.048  30.380  1.00  0.00    -0.000 C 
ATOM      9  C   UNL A   1     -35.355  15.143  30.108  1.00  0.00    -0.023 C 
ATOM     10  C   UNL A   1     -34.686  14.357  29.005  1.00  0.00     0.012 C 
ATOM     11  C   UNL A   1     -34.386  15.317  27.841  1.00  0.00     0.012 C 
ATOM     12  C   UNL A   1     -35.510  13.082  28.615  1.00  0.00     0.007 C 
ENDROOT
BRANCH   2  13
ATOM     13  O   UNL A   1     -37.776  11.208  28.886  1.00  0.00    -0.461 OA
BRANCH  13  14
ATOM     14  C   UNL A   1     -37.250   9.979  28.613  1.00  0.00     0.311 C 
ATOM     15  O   UNL A   1     -36.321   9.545  29.281  1.00  0.00    -0.252 OA
BRANCH  14  16
ATOM     16  C   UNL A   1     -37.829   9.140  27.477  1.00  0.00     0.062 C 
ATOM     17  C   UNL A   1     -37.349   7.670  27.574  1.00  0.00     0.023 C 
ATOM     18  C   UNL A   1     -39.365   9.146  27.604  1.00  0.00     0.023 C 
BRANCH  16  19
ATOM     19  C   UNL A   1     -37.446   9.743  26.096  1.00  0.00     0.015 C 
ATOM     20  C   UNL A   1     -36.063   9.327  25.578  1.00  0.00     0.005 C 
ENDBRANCH  16  19
ENDBRANCH  14  16
ENDBRANCH  13  14
ENDBRANCH   2  13
BRANCH  12  21
ATOM     21  C   UNL A   1     -34.875  12.284  27.440  1.00  0.00     0.009 C 
BRANCH  21  22
ATOM     22  C   UNL A   1     -33.821  11.256  27.892  1.00  0.00     0.046 C 
BRANCH  22  23
ATOM     23  C   UNL A   1     -32.424  11.504  27.290  1.00  0.00     0.179 C 
ATOM     24  C   UNL A   1     -32.362  11.129  25.784  1.00  0.00     0.077 C 
ATOM     25  O   UNL A   1     -31.487  10.796  28.038  1.00  0.00    -0.462 OA
ATOM     26  C   UNL A   1     -30.909  11.119  25.316  1.00  0.00     0.129 C 
ATOM     27  C   UNL A   1     -30.483  10.021  27.543  1.00  0.00     0.308 C 
ATOM     28  C   UNL A   1     -30.146  10.014  26.072  1.00  0.00     0.154 C 
ATOM     29  O   UNL A   1     -29.876   9.281  28.298  1.00  0.00    -0.252 OA
BRANCH  26  30
ATOM     30  O   UNL A   1     -30.324  12.390  25.488  1.00  0.00    -0.392 OA
ATOM     31  H   UNL A   1     -30.515  12.949  24.691  1.00  0.00     0.210 HD
ENDBRANCH  26  30
ENDBRANCH  22  23
ENDBRANCH  21  22
ENDBRANCH  12  21
TORSDOF 8
ENDMDL
MODEL 4
REMARK VINA RESULT:    -6.086      1.525      4.423
REMARK INTER + INTRA:         -11.034
REMARK INTER:                  -9.175
REMARK INTRA:                  -1.859
REMARK UNBOUND:                -2.280
REMARK SMILES CCC(C)(C)C(=O)O[C@H]1C[C@@H](C)C=C2C=C[C@H](C)[C@H](CC[C@@H]3C[C@@H](O)CC(=O)O3)[C@H]21
REMARK SMILES IDX 30 1 9 2 10 3 11 4 12 5 13 6 14 7 15 8 16 9 17 10 18 11
REMARK SMILES IDX 19 12 8 13 6 14 7 15 3 16 4 17 5 18 2 19 1 20 20 21 21 22
REMARK SMILES IDX 22 23 23 24 29 25 24 26 27 27 26 28 28 29 25 30
REMARK H PARENT 25 31
REMARK Flexibility Score: inf
ROOT
ATOM      1  C   UNL A   1     -36.915   9.198  26.220  1.00  0.00     0.063 C 
ATOM      2  C   UNL A   1     -37.370   9.816  27.574  1.00  0.00     0.185 C 
ATOM      3  C   UNL A   1     -38.820   9.395  27.844  1.00  0.00     0.053 C 
ATOM      4  C   UNL A   1     -39.802   9.889  26.762  1.00  0.00     0.012 C 
ATOM      5  C   UNL A   1     -40.274  11.327  27.001  1.00  0.00     0.012 C 
ATOM      6  C   UNL A   1     -39.219   9.786  25.369  1.00  0.00    -0.020 C 
ATOM      7  C   UNL A   1     -37.926   9.487  25.110  1.00  0.00    -0.045 C 
ATOM      8  C   UNL A   1     -37.489   9.398  23.694  1.00  0.00    -0.000 C 
ATOM      9  C   UNL A   1     -36.216   9.144  23.365  1.00  0.00    -0.023 C 
ATOM     10  C   UNL A   1     -35.121   8.972  24.392  1.00  0.00     0.012 C 
ATOM     11  C   UNL A   1     -34.769   7.477  24.477  1.00  0.00     0.012 C 
ATOM     12  C   UNL A   1     -35.493   9.642  25.759  1.00  0.00     0.007 C 
ENDROOT
BRANCH   2  13
ATOM     13  O   UNL A   1     -37.244  11.201  27.555  1.00  0.00    -0.461 OA
BRANCH  13  14
ATOM     14  C   UNL A   1     -36.943  11.972  28.640  1.00  0.00     0.311 C 
ATOM     15  O   UNL A   1     -36.865  11.465  29.752  1.00  0.00    -0.252 OA
BRANCH  14  16
ATOM     16  C   UNL A   1     -36.695  13.468  28.465  1.00  0.00     0.062 C 
ATOM     17  C   UNL A   1     -37.807  14.298  29.153  1.00  0.00     0.023 C 
ATOM     18  C   UNL A   1     -35.355  13.818  29.142  1.00  0.00     0.023 C 
BRANCH  16  19
ATOM     19  C   UNL A   1     -36.599  13.838  26.958  1.00  0.00     0.015 C 
ATOM     20  C   UNL A   1     -35.168  13.965  26.421  1.00  0.00     0.005 C 
ENDBRANCH  16  19
ENDBRANCH  14  16
ENDBRANCH  13  14
ENDBRANCH   2  13
BRANCH  12  21
ATOM     21  C   UNL A   1     -34.409   9.429  26.855  1.00  0.00     0.009 C 
BRANCH  21  22
ATOM     22  C   UNL A   1     -33.940  10.739  27.519  1.00  0.00     0.046 C 
BRANCH  22  23
ATOM     23  C   UNL A   1     -32.520  11.164  27.098  1.00  0.00     0.179 C 
ATOM     24  C   UNL A   1     -32.244  10.874  25.597  1.00  0.00     0.077 C 
ATOM     25  O   UNL A   1     -31.601  10.524  27.926  1.00  0.00    -0.462 OA
ATOM     26  C   UNL A   1     -30.754  11.041  25.306  1.00  0.00     0.129 C 
ATOM     27  C   UNL A   1     -30.467   9.886  27.526  1.00  0.00     0.308 C 
ATOM     28  C   UNL A   1     -29.965   9.988  26.107  1.00  0.00     0.154 C 
ATOM     29  O   UNL A   1     -29.872   9.178  28.321  1.00  0.00    -0.252 OA
BRANCH  26  30
ATOM     30  O   UNL A   1     -30.339  12.358  25.594  1.00  0.00    -0.392 OA
ATOM     31  H   UNL A   1     -30.317  12.885  24.754  1.00  0.00     0.210 HD
ENDBRANCH  26  30
ENDBRANCH  22  23
ENDBRANCH  21  22
ENDBRANCH  12  21
TORSDOF 8
ENDMDL
MODEL 5
REMARK VINA RESULT:    -5.937      2.701      5.766
REMARK INTER + INTRA:         -10.820
REMARK INTER:                  -8.932
REMARK INTRA:                  -1.889
REMARK UNBOUND:                -2.280
REMARK SMILES CCC(C)(C)C(=O)O[C@H]1C[C@@H](C)C=C2C=C[C@H](C)[C@H](CC[C@@H]3C[C@@H](O)CC(=O)O3)[C@H]21
REMARK SMILES IDX 30 1 9 2 10 3 11 4 12 5 13 6 14 7 15 8 16 9 17 10 18 11
REMARK SMILES IDX 19 12 8 13 6 14 7 15 3 16 4 17 5 18 2 19 1 20 20 21 21 22
REMARK SMILES IDX 22 23 23 24 29 25 24 26 27 27 26 28 28 29 25 30
REMARK H PARENT 25 31
REMARK Flexibility Score: inf
ROOT
ATOM      1  C   UNL A   1     -36.481  13.310  30.450  1.00  0.00     0.063 C 
ATOM      2  C   UNL A   1     -35.794  14.517  31.153  1.00  0.00     0.185 C 
ATOM      3  C   UNL A   1     -36.289  14.587  32.603  1.00  0.00     0.053 C 
ATOM      4  C   UNL A   1     -37.813  14.803  32.709  1.00  0.00     0.012 C 
ATOM      5  C   UNL A   1     -38.212  16.278  32.599  1.00  0.00     0.012 C 
ATOM      6  C   UNL A   1     -38.577  14.006  31.674  1.00  0.00    -0.020 C 
ATOM      7  C   UNL A   1     -37.996  13.339  30.651  1.00  0.00    -0.045 C 
ATOM      8  C   UNL A   1     -38.863  12.579  29.718  1.00  0.00    -0.000 C 
ATOM      9  C   UNL A   1     -38.359  11.928  28.661  1.00  0.00    -0.023 C 
ATOM     10  C   UNL A   1     -36.891  11.948  28.308  1.00  0.00     0.012 C 
ATOM     11  C   UNL A   1     -36.286  10.584  28.679  1.00  0.00     0.012 C 
ATOM     12  C   UNL A   1     -36.159  13.187  28.929  1.00  0.00     0.007 C 
ENDROOT
BRANCH   2  13
ATOM     13  O   UNL A   1     -36.054  15.702  30.474  1.00  0.00    -0.461 OA
BRANCH  13  14
ATOM     14  C   UNL A   1     -35.106  16.494  29.896  1.00  0.00     0.311 C 
ATOM     15  O   UNL A   1     -34.046  16.705  30.471  1.00  0.00    -0.252 OA
BRANCH  14  16
ATOM     16  C   UNL A   1     -35.364  17.112  28.524  1.00  0.00     0.062 C 
ATOM     17  C   UNL A   1     -35.804  18.591  28.655  1.00  0.00     0.023 C 
ATOM     18  C   UNL A   1     -34.047  17.078  27.722  1.00  0.00     0.023 C 
BRANCH  16  19
ATOM     19  C   UNL A   1     -36.436  16.297  27.746  1.00  0.00     0.015 C 
ATOM     20  C   UNL A   1     -36.243  16.275  26.224  1.00  0.00     0.005 C 
ENDBRANCH  16  19
ENDBRANCH  14  16
ENDBRANCH  13  14
ENDBRANCH   2  13
BRANCH  12  21
ATOM     21  C   UNL A   1     -34.631  13.203  28.632  1.00  0.00     0.009 C 
BRANCH  21  22
ATOM     22  C   UNL A   1     -34.295  13.141  27.129  1.00  0.00     0.046 C 
BRANCH  22  23
ATOM     23  C   UNL A   1     -32.893  12.572  26.837  1.00  0.00     0.179 C 
ATOM     24  C   UNL A   1     -32.662  12.337  25.320  1.00  0.00     0.077 C 
ATOM     25  O   UNL A   1     -32.729  11.401  27.573  1.00  0.00    -0.462 OA
ATOM     26  C   UNL A   1     -31.392  11.516  25.113  1.00  0.00     0.129 C 
ATOM     27  C   UNL A   1     -32.229  10.223  27.107  1.00  0.00     0.308 C 
ATOM     28  C   UNL A   1     -31.586  10.124  25.746  1.00  0.00     0.154 C 
ATOM     29  O   UNL A   1     -32.346   9.217  27.786  1.00  0.00    -0.252 OA
BRANCH  26  30
ATOM     30  O   UNL A   1     -30.273  12.194  25.640  1.00  0.00    -0.392 OA
ATOM     31  H   UNL A   1     -30.372  12.274  26.624  1.00  0.00     0.210 HD
ENDBRANCH  26  30
ENDBRANCH  22  23
ENDBRANCH  21  22
ENDBRANCH  12  21
TORSDOF 8
ENDMDL
MODEL 6
REMARK VINA RESULT:    -5.885      2.028      5.031
REMARK INTER + INTRA:         -10.745
REMARK INTER:                  -9.131
REMARK INTRA:                  -1.614
REMARK UNBOUND:                -2.280
REMARK SMILES CCC(C)(C)C(=O)O[C@H]1C[C@@H](C)C=C2C=C[C@H](C)[C@H](CC[C@@H]3C[C@@H](O)CC(=O)O3)[C@H]21
REMARK SMILES IDX 30 1 9 2 10 3 11 4 12 5 13 6 14 7 15 8 16 9 17 10 18 11
REMARK SMILES IDX 19 12 8 13 6 14 7 15 3 16 4 17 5 18 2 19 1 20 20 21 21 22
REMARK SMILES IDX 22 23 23 24 29 25 24 26 27 27 26 28 28 29 25 30
REMARK H PARENT 25 31
REMARK Flexibility Score: inf
ROOT
ATOM      1  C   UNL A   1     -37.010  11.952  29.287  1.00  0.00     0.063 C 
ATOM      2  C   UNL A   1     -36.383  13.276  29.812  1.00  0.00     0.185 C 
ATOM      3  C   UNL A   1     -37.245  13.803  30.966  1.00  0.00     0.053 C 
ATOM      4  C   UNL A   1     -38.693  14.121  30.540  1.00  0.00     0.012 C 
ATOM      5  C   UNL A   1     -38.837  15.514  29.920  1.00  0.00     0.012 C 
ATOM      6  C   UNL A   1     -39.245  13.092  29.577  1.00  0.00    -0.020 C 
ATOM      7  C   UNL A   1     -38.502  12.120  28.999  1.00  0.00    -0.045 C 
ATOM      8  C   UNL A   1     -39.175  11.162  28.087  1.00  0.00    -0.000 C 
ATOM      9  C   UNL A   1     -38.494  10.200  27.452  1.00  0.00    -0.023 C 
ATOM     10  C   UNL A   1     -36.997  10.036  27.572  1.00  0.00     0.012 C 
ATOM     11  C   UNL A   1     -36.715   8.815  28.464  1.00  0.00     0.012 C 
ATOM     12  C   UNL A   1     -36.300  11.363  28.028  1.00  0.00     0.007 C 
ENDROOT
BRANCH   2  13
ATOM     13  O   UNL A   1     -36.278  14.216  28.792  1.00  0.00    -0.461 OA
BRANCH  13  14
ATOM     14  C   UNL A   1     -35.162  14.953  28.523  1.00  0.00     0.311 C 
ATOM     15  O   UNL A   1     -34.095  14.395  28.298  1.00  0.00    -0.252 OA
BRANCH  14  16
ATOM     16  C   UNL A   1     -35.246  16.476  28.492  1.00  0.00     0.062 C 
ATOM     17  C   UNL A   1     -33.921  17.094  27.979  1.00  0.00     0.023 C 
ATOM     18  C   UNL A   1     -36.366  16.880  27.513  1.00  0.00     0.023 C 
BRANCH  16  19
ATOM     19  C   UNL A   1     -35.594  17.038  29.899  1.00  0.00     0.015 C 
ATOM     20  C   UNL A   1     -34.731  16.486  31.040  1.00  0.00     0.005 C 
ENDBRANCH  16  19
ENDBRANCH  14  16
ENDBRANCH  13  14
ENDBRANCH   2  13
BRANCH  12  21
ATOM     21  C   UNL A   1     -34.764  11.209  28.219  1.00  0.00     0.009 C 
BRANCH  21  22
ATOM     22  C   UNL A   1     -34.055  10.561  27.013  1.00  0.00     0.046 C 
BRANCH  22  23
ATOM     23  C   UNL A   1     -32.630  11.097  26.779  1.00  0.00     0.179 C 
ATOM     24  C   UNL A   1     -32.148  10.858  25.322  1.00  0.00     0.077 C 
ATOM     25  O   UNL A   1     -31.777  10.507  27.709  1.00  0.00    -0.462 OA
ATOM     26  C   UNL A   1     -30.650  11.139  25.223  1.00  0.00     0.129 C 
ATOM     27  C   UNL A   1     -30.558   9.961  27.447  1.00  0.00     0.308 C 
ATOM     28  C   UNL A   1     -29.891  10.129  26.105  1.00  0.00     0.154 C 
ATOM     29  O   UNL A   1     -30.015   9.281  28.302  1.00  0.00    -0.252 OA
BRANCH  26  30
ATOM     30  O   UNL A   1     -30.373  12.476  25.577  1.00  0.00    -0.392 OA
ATOM     31  H   UNL A   1     -31.130  13.052  25.296  1.00  0.00     0.210 HD
ENDBRANCH  26  30
ENDBRANCH  22  23
ENDBRANCH  21  22
ENDBRANCH  12  21
TORSDOF 8
ENDMDL
MODEL 7
REMARK VINA RESULT:    -5.832      2.011      4.755
REMARK INTER + INTRA:         -10.669
REMARK INTER:                  -8.436
REMARK INTRA:                  -2.233
REMARK UNBOUND:                -2.280
REMARK SMILES CCC(C)(C)C(=O)O[C@H]1C[C@@H](C)C=C2C=C[C@H](C)[C@H](CC[C@@H]3C[C@@H](O)CC(=O)O3)[C@H]21
REMARK SMILES IDX 30 1 9 2 10 3 11 4 12 5 13 6 14 7 15 8 16 9 17 10 18 11
REMARK SMILES IDX 19 12 8 13 6 14 7 15 3 16 4 17 5 18 2 19 1 20 20 21 21 22
REMARK SMILES IDX 22 23 23 24 29 25 24 26 27 27 26 28 28 29 25 30
REMARK H PARENT 25 31
REMARK Flexibility Score: inf
ROOT
ATOM      1  C   UNL A   1     -37.227   8.653  25.111  1.00  0.00     0.063 C 
ATOM      2  C   UNL A   1     -36.970   8.975  26.612  1.00  0.00     0.185 C 
ATOM      3  C   UNL A   1     -38.008   8.228  27.458  1.00  0.00     0.053 C 
ATOM      4  C   UNL A   1     -39.458   8.648  27.143  1.00  0.00     0.012 C 
ATOM      5  C   UNL A   1     -39.888   9.910  27.897  1.00  0.00     0.012 C 
ATOM      6  C   UNL A   1     -39.684   8.858  25.661  1.00  0.00    -0.020 C 
ATOM      7  C   UNL A   1     -38.694   8.873  24.739  1.00  0.00    -0.045 C 
ATOM      8  C   UNL A   1     -39.057   9.069  23.314  1.00  0.00    -0.000 C 
ATOM      9  C   UNL A   1     -38.126   9.133  22.353  1.00  0.00    -0.023 C 
ATOM     10  C   UNL A   1     -36.644   9.056  22.639  1.00  0.00     0.012 C 
ATOM     11  C   UNL A   1     -36.139   7.670  22.203  1.00  0.00     0.012 C 
ATOM     12  C   UNL A   1     -36.315   9.443  24.121  1.00  0.00     0.007 C 
ENDROOT
BRANCH   2  13
ATOM     13  O   UNL A   1     -37.024  10.345  26.843  1.00  0.00    -0.461 OA
BRANCH  13  14
ATOM     14  C   UNL A   1     -36.338  10.998  27.824  1.00  0.00     0.311 C 
ATOM     15  O   UNL A   1     -35.762  10.364  28.699  1.00  0.00    -0.252 OA
BRANCH  14  16
ATOM     16  C   UNL A   1     -36.280  12.523  27.827  1.00  0.00     0.062 C 
ATOM     17  C   UNL A   1     -36.454  13.087  26.394  1.00  0.00     0.023 C 
ATOM     18  C   UNL A   1     -37.445  13.051  28.688  1.00  0.00     0.023 C 
BRANCH  16  19
ATOM     19  C   UNL A   1     -34.944  13.023  28.445  1.00  0.00     0.015 C 
ATOM     20  C   UNL A   1     -34.099  13.904  27.516  1.00  0.00     0.005 C 
ENDBRANCH  16  19
ENDBRANCH  14  16
ENDBRANCH  13  14
ENDBRANCH   2  13
BRANCH  12  21
ATOM     21  C   UNL A   1     -34.802   9.315  24.462  1.00  0.00     0.009 C 
BRANCH  21  22
ATOM     22  C   UNL A   1     -34.138  10.656  24.828  1.00  0.00     0.046 C 
BRANCH  22  23
ATOM     23  C   UNL A   1     -33.298  10.593  26.118  1.00  0.00     0.179 C 
ATOM     24  C   UNL A   1     -31.818  10.997  25.873  1.00  0.00     0.077 C 
ATOM     25  O   UNL A   1     -33.402   9.311  26.652  1.00  0.00    -0.462 OA
ATOM     26  C   UNL A   1     -30.978  10.644  27.098  1.00  0.00     0.129 C 
ATOM     27  C   UNL A   1     -32.373   8.547  27.113  1.00  0.00     0.308 C 
ATOM     28  C   UNL A   1     -30.987   9.115  27.288  1.00  0.00     0.154 C 
ATOM     29  O   UNL A   1     -32.568   7.365  27.344  1.00  0.00    -0.252 OA
BRANCH  26  30
ATOM     30  O   UNL A   1     -31.450  11.330  28.236  1.00  0.00    -0.392 OA
ATOM     31  H   UNL A   1     -32.046  12.069  27.949  1.00  0.00     0.210 HD
ENDBRANCH  26  30
ENDBRANCH  22  23
ENDBRANCH  21  22
ENDBRANCH  12  21
TORSDOF 8
ENDMDL
MODEL 8
REMARK VINA RESULT:    -5.770      2.225      5.308
REMARK INTER + INTRA:         -10.579
REMARK INTER:                  -8.683
REMARK INTRA:                  -1.896
REMARK UNBOUND:                -2.280
REMARK SMILES CCC(C)(C)C(=O)O[C@H]1C[C@@H](C)C=C2C=C[C@H](C)[C@H](CC[C@@H]3C[C@@H](O)CC(=O)O3)[C@H]21
REMARK SMILES IDX 30 1 9 2 10 3 11 4 12 5 13 6 14 7 15 8 16 9 17 10 18 11
REMARK SMILES IDX 19 12 8 13 6 14 7 15 3 16 4 17 5 18 2 19 1 20 20 21 21 22
REMARK SMILES IDX 22 23 23 24 29 25 24 26 27 27 26 28 28 29 25 30
REMARK H PARENT 25 31
REMARK Flexibility Score: inf
ROOT
ATOM      1  C   UNL A   1     -37.202  12.734  25.981  1.00  0.00     0.063 C 
ATOM      2  C   UNL A   1     -36.480  11.913  27.088  1.00  0.00     0.185 C 
ATOM      3  C   UNL A   1     -36.839  12.510  28.454  1.00  0.00     0.053 C 
ATOM      4  C   UNL A   1     -36.390  13.978  28.608  1.00  0.00     0.012 C 
ATOM      5  C   UNL A   1     -34.926  14.108  29.039  1.00  0.00     0.012 C 
ATOM      6  C   UNL A   1     -36.604  14.777  27.340  1.00  0.00    -0.020 C 
ATOM      7  C   UNL A   1     -36.958  14.234  26.153  1.00  0.00    -0.045 C 
ATOM      8  C   UNL A   1     -37.156  15.136  24.992  1.00  0.00    -0.000 C 
ATOM      9  C   UNL A   1     -37.469  14.663  23.779  1.00  0.00    -0.023 C 
ATOM     10  C   UNL A   1     -37.604  13.188  23.482  1.00  0.00     0.012 C 
ATOM     11  C   UNL A   1     -39.100  12.859  23.337  1.00  0.00     0.012 C 
ATOM     12  C   UNL A   1     -36.832  12.310  24.526  1.00  0.00     0.007 C 
ENDROOT
BRANCH   2  13
ATOM     13  O   UNL A   1     -35.104  11.908  26.886  1.00  0.00    -0.461 OA
BRANCH  13  14
ATOM     14  C   UNL A   1     -34.261  10.911  27.281  1.00  0.00     0.311 C 
ATOM     15  O   UNL A   1     -34.684   9.976  27.949  1.00  0.00    -0.252 OA
BRANCH  14  16
ATOM     16  C   UNL A   1     -32.789  10.957  26.882  1.00  0.00     0.062 C 
ATOM     17  C   UNL A   1     -32.626  11.436  25.417  1.00  0.00     0.023 C 
ATOM     18  C   UNL A   1     -32.070  11.971  27.794  1.00  0.00     0.023 C 
BRANCH  16  19
ATOM     19  C   UNL A   1     -32.123   9.565  27.072  1.00  0.00     0.015 C 
ATOM     20  C   UNL A   1     -30.612   9.608  27.329  1.00  0.00     0.005 C 
ENDBRANCH  16  19
ENDBRANCH  14  16
ENDBRANCH  13  14
ENDBRANCH   2  13
BRANCH  12  21
ATOM     21  C   UNL A   1     -37.003  10.783  24.281  1.00  0.00     0.009 C 
BRANCH  21  22
ATOM     22  C   UNL A   1     -35.887  10.170  23.412  1.00  0.00     0.046 C 
BRANCH  22  23
ATOM     23  C   UNL A   1     -35.440   8.773  23.883  1.00  0.00     0.179 C 
ATOM     24  C   UNL A   1     -35.986   7.645  22.965  1.00  0.00     0.077 C 
ATOM     25  O   UNL A   1     -35.842   8.602  25.206  1.00  0.00    -0.462 OA
ATOM     26  C   UNL A   1     -35.762   6.288  23.629  1.00  0.00     0.129 C 
ATOM     27  C   UNL A   1     -36.455   7.503  25.724  1.00  0.00     0.308 C 
ATOM     28  C   UNL A   1     -36.583   6.225  24.931  1.00  0.00     0.154 C 
ATOM     29  O   UNL A   1     -36.954   7.568  26.835  1.00  0.00    -0.252 OA
BRANCH  26  30
ATOM     30  O   UNL A   1     -34.387   6.065  23.849  1.00  0.00    -0.392 OA
ATOM     31  H   UNL A   1     -34.276   5.399  24.576  1.00  0.00     0.210 HD
ENDBRANCH  26  30
ENDBRANCH  22  23
ENDBRANCH  21  22
ENDBRANCH  12  21
TORSDOF 8
ENDMDL
MODEL 9
REMARK VINA RESULT:    -5.762      2.507      5.207
REMARK INTER + INTRA:         -10.568
REMARK INTER:                  -8.474
REMARK INTRA:                  -2.094
REMARK UNBOUND:                -2.280
REMARK SMILES CCC(C)(C)C(=O)O[C@H]1C[C@@H](C)C=C2C=C[C@H](C)[C@H](CC[C@@H]3C[C@@H](O)CC(=O)O3)[C@H]21
REMARK SMILES IDX 30 1 9 2 10 3 11 4 12 5 13 6 14 7 15 8 16 9 17 10 18 11
REMARK SMILES IDX 19 12 8 13 6 14 7 15 3 16 4 17 5 18 2 19 1 20 20 21 21 22
REMARK SMILES IDX 22 23 23 24 29 25 24 26 27 27 26 28 28 29 25 30
REMARK H PARENT 25 31
REMARK Flexibility Score: inf
ROOT
ATOM      1  C   UNL A   1     -36.214  11.049  25.501  1.00  0.00     0.063 C 
ATOM      2  C   UNL A   1     -34.931  10.640  24.721  1.00  0.00     0.185 C 
ATOM      3  C   UNL A   1     -35.249   9.410  23.864  1.00  0.00     0.053 C 
ATOM      4  C   UNL A   1     -35.684   8.188  24.700  1.00  0.00     0.012 C 
ATOM      5  C   UNL A   1     -34.496   7.388  25.243  1.00  0.00     0.012 C 
ATOM      6  C   UNL A   1     -36.586   8.576  25.852  1.00  0.00    -0.020 C 
ATOM      7  C   UNL A   1     -36.826   9.852  26.230  1.00  0.00    -0.045 C 
ATOM      8  C   UNL A   1     -37.749  10.093  27.366  1.00  0.00    -0.000 C 
ATOM      9  C   UNL A   1     -38.003  11.328  27.817  1.00  0.00    -0.023 C 
ATOM     10  C   UNL A   1     -37.346  12.562  27.245  1.00  0.00     0.012 C 
ATOM     11  C   UNL A   1     -38.383  13.310  26.391  1.00  0.00     0.012 C 
ATOM     12  C   UNL A   1     -36.005  12.221  26.509  1.00  0.00     0.007 C 
ENDROOT
BRANCH   2  13
ATOM     13  O   UNL A   1     -33.878  10.388  25.594  1.00  0.00    -0.461 OA
BRANCH  13  14
ATOM     14  C   UNL A   1     -32.594  10.809  25.409  1.00  0.00     0.311 C 
ATOM     15  O   UNL A   1     -32.291  11.437  24.403  1.00  0.00    -0.252 OA
BRANCH  14  16
ATOM     16  C   UNL A   1     -31.534  10.504  26.464  1.00  0.00     0.062 C 
ATOM     17  C   UNL A   1     -31.826  11.267  27.780  1.00  0.00     0.023 C 
ATOM     18  C   UNL A   1     -31.578   8.994  26.773  1.00  0.00     0.023 C 
BRANCH  16  19
ATOM     19  C   UNL A   1     -30.115  10.858  25.938  1.00  0.00     0.015 C 
ATOM     20  C   UNL A   1     -29.135   9.679  25.896  1.00  0.00     0.005 C 
ENDBRANCH  16  19
ENDBRANCH  14  16
ENDBRANCH  13  14
ENDBRANCH   2  13
BRANCH  12  21
ATOM     21  C   UNL A   1     -35.335  13.465  25.857  1.00  0.00     0.009 C 
BRANCH  21  22
ATOM     22  C   UNL A   1     -33.993  13.853  26.507  1.00  0.00     0.046 C 
BRANCH  22  23
ATOM     23  C   UNL A   1     -34.122  14.967  27.564  1.00  0.00     0.179 C 
ATOM     24  C   UNL A   1     -34.417  14.398  28.979  1.00  0.00     0.077 C 
ATOM     25  O   UNL A   1     -35.109  15.858  27.150  1.00  0.00    -0.462 OA
ATOM     26  C   UNL A   1     -34.818  15.534  29.917  1.00  0.00     0.129 C 
ATOM     27  C   UNL A   1     -36.111  16.362  27.921  1.00  0.00     0.308 C 
ATOM     28  C   UNL A   1     -36.134  16.158  29.415  1.00  0.00     0.154 C 
ATOM     29  O   UNL A   1     -37.035  16.952  27.385  1.00  0.00    -0.252 OA
BRANCH  26  30
ATOM     30  O   UNL A   1     -33.779  16.482  30.020  1.00  0.00    -0.392 OA
ATOM     31  H   UNL A   1     -33.437  16.691  29.113  1.00  0.00     0.210 HD
ENDBRANCH  26  30
ENDBRANCH  22  23
ENDBRANCH  21  22
ENDBRANCH  12  21
TORSDOF 8
ENDMDL
